clock {
  timezone EST+5EDT;
  starttime '2000-01-01 0:00:00';
  stoptime '2000-01-01 0:00:00';
};
#set relax_naming_rules=1
#set profiler=1
module powerflow {
  solver_method NR;
  line_capacitance TRUE;
};
module generators;
module tape;

//#define VSOURCE=2401.8
//#include "test123_base.glm";

//#define VSOURCE=66395.3
//#include "test13assets_base.glm";

#define VSOURCE=66395.3
#include "ieee13_base.glm";

//#define VSOURCE=66395.3
//#include "test8500_base.glm";

//#define VSOURCE=39837.2
//#include "testJ1_base.glm";

//#define VSOURCE=57735.0
//#include "testR2_base.glm";

//#define VSOURCE=132790.6
//#include "test37_base.glm";

//#ifdef WANT_VI_DUMP
object voltdump {
  filename test_volt.csv;
  mode POLAR;
};
object currdump {
  filename test_curr.csv;
  mode POLAR;
};
//#endif
