clock {
  timezone EST+5EDT;
  starttime '2000-01-01 0:00:00';
  stoptime '2000-01-01 0:00:00';
};
#set relax_naming_rules=1
#set profiler=1
module powerflow {
  solver_method NR;
  line_capacitance TRUE;
};
module generators;
module residential;
module climate;
module tape;
module reliability {
	report_event_log false;
}
module residential {
  implicit_enduses NONE;
}

//#include "support/water_and_setpoint_schedule_v3.glm"
#include "support/appliance_schedules.glm"

object climate {
  name "RegionalWeather";
  tmyfile "WA-Yakima.tmy2";
  interpolate QUADRATIC;
};

#define VSOURCE=2401.8
#include "transactive2_base.glm";
//#include "transactive_base.glm";
//#include "transactiveHouse_base.glm";
//#include "ieee123pv_base.glm";

//#define VSOURCE=66395.3
//#include "evalHouse_base.glm";
//#include "eval_base.glm";
//#include "ieee3sub_base.glm";

//#define VSOURCE=2401.8
//#include "ieee123_base.glm";

//#define VSOURCE=66395.3
//#include "ieee13assets_base.glm";

//#define VSOURCE=66395.3
//#include "ieee13_base.glm";

//#define VSOURCE=66395.3
//#include "ieee8500_base.glm";

//#define VSOURCE=66395.3
//#include "ieee8500house_base.glm";

//#define VSOURCE=39837.2
//#include "epriJ1_base.glm";

//#define VSOURCE=57735.0
//#include "taxR2_2_base.glm";

//#define VSOURCE=57735.0
//#include "taxR2_2house_base.glm";

// only WYE_WYE regulators work in NR, except for MANUAL control
// the jumper within the open delta bank has to be manually removed before this runs under MANUAL control
// should also add a MANUAL position for tap c
//#define VSOURCE=132790.6
//#include "ieee37_base.glm";

//#ifdef WANT_VI_DUMP
object voltdump {
  filename test_volt.csv;
  mode POLAR;
};
object currdump {
  filename test_curr.csv;
  mode POLAR;
};
//#endif
