!New utility-scale battery storage systems - capacity can be adjusted later

New Storage.Battery1 phases=3 bus1=m2001-ESS1 kVA=250
~ kWrated=250 kWHrated=500 %reserve=30
~ state=charge kW=150 PF=1
New Storage.Battery2 phases=3 bus1=m2001-ESS2 kVA=250
~ kWrated=250 kWHrated=500 %reserve=30
~ state=charge kW=150 PF=1

New Transformer.2001-ESS12 XHL=5.75  kVA=750 Conns=[wye, Delta]
~ wdg=1 bus=m2001500.1.2.3.4  kV=12.47
~ wdg=2 bus=m2001DER480-2      kV=0.480

