! New Generators

! 3000kW CHP steam plant in Old Towne
New Generator.SteamGen1 bus1=M1026CHP-3 kV=12.47 kW=3000 Xdp=0.27 Xdpp=0.2 H=2 Mode=3 !conventional slow-ramping generator operating in PV mode

! 500kW PV farm in Old Towne
New Generator.PVFarm1 bus1=M1047PV-3 kV=12.47 kW=500 kVar=100 Mode=7 !Operating with specified P and Q

! 620kW inverter connected diesel backup genset for hospital microgrid
New Generator.Diesel620 bus1=m1209-DIES1 kV=0.480 kW=620 conn=delta Model=7 !Operating with specifiec P and Q
New Transformer.1209-DIES1 XHL=5.75  kVA=750 Conns=[wye, Delta]
~ wdg=1 bus=E192258.1.2.3.4  kV=12.47
~ wdg=2 bus=M1209DER480-1    kV=0.480
setkvbase M1209DER480-1 kVll=0.480 !Fix voltage base in openDSS
setkvbase M1209-DIES1   kVll=0.480

! 125kW inverter-connected LNG reciprocating engine genset at S1 shopping center
New Generator.LNGengine100 bus1=M1142-LNG1 kV=0.480 kW=125 kVar=15 conn=delta Model=7 !Operating with specified P and Q
New Transformer.1142-LNG1 XHL=5.75  kVA=150 Conns=[wye, Delta]
~ wdg=1 bus=M1142813.1.2.3.4  kV=12.47
~ wdg=2 bus=M1142DER480-1     kV=0.480
setkvbase m1142DER480-1 kVll=0.480
setkvbase m1142-LNG1    kVll=0.480

! 3x200kW microturbine in New Neighborhood
New Generator.MicroTurb-1 bus1=m2001-MT1 kV=0.480 kW=200 pf=0.9 Xdp=0.27 Xdpp=0.2 H=2 conn=delta mode=1 !Operating in constant pf mode per CA Rule 21
New Generator.MicroTurb-2 bus1=m2001-MT2 kV=0.480 kW=200 pf=0.9 Xdp=0.27 Xdpp=0.2 H=2 conn=delta mode=1 !Operating in constant pf mode per CA Rule 21
New Generator.MicroTurb-3 bus1=m2001-MT3 kV=0.480 kW=200 pf=0.9 Xdp=0.27 Xdpp=0.2 H=2 conn=delta mode=1 !Operating in constant pf mode per CA Rule 21
New Transformer.2001-MT123 XHL=5.75  kVA=750 Conns=[wye, Delta]
~ wdg=1 bus=M2001500.1.2.3.4  kV=12.47
~ wdg=2 bus=M2001DER480-1     kV=0.480
setkvbase m2001DER480-1 kVll=0.480
setkvbase m2001-MT1    kVll=0.480
setkvbase m2001-MT2    kVll=0.480
setkvbase m2001-MT3    kVll=0.480
setkvbase m2001der-1   kVll=0.480
setkvbase m2001der-2   kVll=0.480
setkvbase m2001der-3   kVll=0.480


! 1800kW Peaking LNG Engine Generator at Industrial Park
New Generator.LNGengine1800 bus1=m1089-LNG1 kV=0.480 kW=1800 pf=0.9 Xdp=0.27 Xdpp=0.2 H=2 conn=delta mode=1 !Operating in constant pf mode per CA Rule 21
New Transformer.1089-LNG1 XHL=5.75  kVA=2000 Conns=[wye, Delta]
~ wdg=1 bus=M1089186.1.2.3.4  kV=12.47
~ wdg=2 bus=M1089DER480-1     kV=0.480
setkvbase m1089DER480-1 kVll=0.480
setkvbase m1089-LNG1    kVll=0.480

! 590kW inverter-connected diesel genset between S1-S2 regulators
New Generator.Diesel590 bus1=m1089-DIES1 kV=0.480 kW=590 kVar=15 conn=delta Model=7 !Operating with specified P and Q
New Transformer.1089-DIES1 XHL=5.75  kVA=750 Conns=[wye, Delta]
~ wdg=1 bus=M1089220.1.2.3.4  kV=12.47
~ wdg=2 bus=M1089DER480-2     kV=0.480
setkvbase m1089DER480-1 kVll=0.480
setkvbase m1089-DIES1   kVll=0.480

! 200kW microturbine in central neighborhood
New Generator.MicroTurb-4 bus1=m1069-MT1 kV=0.480 kW=200 pf=0.9 Xdp=0.27 Xdpp=0.2 H=2 conn=delta mode=1 !Operating in constant pf mode per CA Rule 21
New Transformer.1069-MT1 XHL=5.75  kVA=300 Conns=[wye, Delta]
~ wdg=1 bus=M1069215.1.2.3.4  kV=12.47
~ wdg=2 bus=M1069DER480-1     kV=0.480
setkvbase m1069DER480-1 kVll=0.480
setkvbase m1069-MT1     kVll=0.480
