// Master file for 8500-Node IEEE Test Feeder Case
// Unbalanced Load Case

Clear

New Circuit.IEEE8500new_335

! Make the source stiff with small impedance
~ pu=1.05  r1=0  x1=0.001  r0=0  x0=0.001  

Redirect  LineCodes.dss
Redirect  Triplex_Linecodes.dss

!Redirect  LinesSwitches.dss
Redirect  Lines.dss
Redirect  Switches.dss
Redirect  Transformers.dss
Redirect  LoadXfmrs.dss    ! Load Transformers
Redirect  Triplex_Lines.dss
Redirect  UnbalancedLoads.dss
Redirect  Capacitors.dss
!Redirect  CapControls.dss
Redirect  Regulators.dss

!%%%%%%%% PV penetration %%%%%%%

Redirect PV_Neigh_100.dss
Redirect PV_10pen.dss

!%%%%%%%%%%%%%%%%%%%%%%%%


Redirect  Generators.dss
Redirect  Storage.dss

! Let DSS estimate the voltage bases
Set voltagebases=[115, 69, 12.47,  0.48, 0.208] 
Calcvoltagebases     ! This also establishes the bus list

! Load in bus coordintes now that bus list is established
Buscoords  BusCoords.dss

New Energymeter.m1 Element=Line.LN5710794-3 Terminal=1


Set Maxiterations=30     ! Sometimes the solution takes more than the default 15 iterations
Set MaxControlIter=100
