new loadshape.23 mult=1
new loadshape.26 mult=1
new loadshape.32 mult=1
new loadshape.36 mult=1
new loadshape.Aggregated mult=1
!************** End LoadShapes **************!
