New Line.OH_10559391 bus1=34097296.1.0 bus2=10559391.1.0 length=117.943141 units=m linecode=OH-1PH_1/0AR phases=1 enabled=True
New Line.OH_10558483 bus1=10558484.2.0 bus2=10558483.2.0 length=139.624403 units=m linecode=OH-1PH_1/0AR phases=1 enabled=True
New Line.OH_10549227 bus1=10548932.1.2.3.0 bus2=10549227.1.2.3.0 length=33.488829 units=m linecode=OH-3PH_795AA phases=3 enabled=True
New Line.OH_10548919 bus1=10548918.1.2.3.0 bus2=10548919.1.2.3.0 length=87.900111 units=m linecode=OH-3PH_397AA phases=3 enabled=True
New Line.OH_34092313 bus1=34092234.3.0 bus2=34092313.3.0 length=67.548075 units=m linecode=OH-1PH_4AR phases=1 enabled=True
New Line.OH_34085491 bus1=34095660.1.2.3.0 bus2=34085491.1.2.3.0 length=76.128402 units=m linecode=OH-3PH_795AA phases=3 enabled=True
New Line.UG_34054972 bus1=34057797.3.0 bus2=34054972.3.0 length=84.069266 units=m linecode=UG-1PH_1/0URD phases=1 enabled=True
New Line.OH_10579832 bus1=10548007.3.0 bus2=10579832.3.0 length=7.700547 units=m linecode=OH-1PH_1/0AR phases=1 enabled=True
New Line.OH_10559275 bus1=34086311.1.0 bus2=10559275.1.0 length=98.723357 units=m linecode=OH-1PH_1/0AR phases=1 enabled=True
New Line.OH_10558475 bus1=10558476.1.2.3.0 bus2=10558475.1.2.3.0 length=8.193699 units=m linecode=OH-3PH_1/0AR phases=3 enabled=True
New Line.OH_10549221 bus1=10549222.1.2.3.0 bus2=10549221.1.2.3.0 length=62.979628 units=m linecode=OH-3PH_795AA phases=3 enabled=True
New Line.OH_10548913 bus1=10548912.1.2.3.0 bus2=10548913.1.2.3.0 length=127.239373 units=m linecode=OH-3PH_397AA phases=3 enabled=True
New Line.OH_34091314 bus1=10559587.3.0 bus2=34091314.3.0 length=3.799378 units=m linecode=OH-1PH_1/0AR phases=1 enabled=True
New Line.OH_34085468 bus1=34085954.3.0 bus2=34085468.3.0 length=597.943725 units=m linecode=OH-1PH_4AR phases=1 enabled=True
New Line.UG_34054966 bus1=20344367.2.0 bus2=34054966.2.0 length=8.414458 units=m linecode=UG-1PH_1/0URD phases=1 enabled=True
New Line.OH_10558958 bus1=10558517.1.0 bus2=10558958.1.0 length=7.269772 units=m linecode=OH-1PH_6CU phases=1 enabled=True
New Line.OH_10557182 bus1=10557802.1.2.3.0 bus2=10557182.1.2.3.0 length=47.292251 units=m linecode=OH-3PH_795AA phases=3 enabled=True
New Line.OH_10549020 bus1=20079696.3.0 bus2=10549020.3.0 length=95.704230 units=m linecode=OH-1PH_6CU phases=1 enabled=True
New Line.OH_10548907 bus1=34095590.1.2.3.0 bus2=10548907.1.2.3.0 length=151.303085 units=m linecode=OH-3PH_2CU phases=3 enabled=True
New Line.OH_34090005 bus1=10548965.1.2.3.0 bus2=34090005.1.2.3.0 length=4.042566 units=m linecode=OH-3PH_1/0AR phases=3 enabled=True
New Line.OH_34085372 bus1=10548983.1.0 bus2=34085372.1.0 length=5.372673 units=m linecode=OH-1PH_1/0AR phases=1 enabled=True
New Line.UG_34054542 bus1=20416460.1.0 bus2=34054542.1.0 length=82.644674 units=m linecode=UG-1PH_1/0URD phases=1 enabled=True
New Line.OH_10579447 bus1=20396671.1.2.3.0 bus2=10579447.1.2.3.0 length=8.530931 units=m linecode=OH-3PH_4AR phases=3 enabled=True
New Line.OH_10558583 bus1=10558520.2.0 bus2=10558583.2.0 length=7.279494 units=m linecode=OH-1PH_1/0AR phases=1 enabled=True
New Line.OH_10555985 bus1=34091315.3.0 bus2=10555985.3.0 length=171.943006 units=m linecode=OH-1PH_6CU phases=1 enabled=True
New Line.OH_10549010 bus1=10549011.1.2.3.0 bus2=10549010.1.2.3.0 length=17.276715 units=m linecode=OH-3PH_795AA phases=3 enabled=True
New Line.OH_10548007 bus1=34084951.1.2.3.0 bus2=10548007.1.2.3.0 length=63.574085 units=m linecode=OH-3PH_4/0AA phases=3 enabled=True
New Line.OH_34087255 bus1=10558471.1.2.3.0 bus2=34087255.1.2.3.0 length=4.478293 units=m linecode=OH-3PH_4AR phases=3 enabled=True
New Line.OH_34085341 bus1=10549294.1.2.3.0 bus2=34085341.1.2.3.0 length=3.795505 units=m linecode=OH-3PH_4/0AA phases=3 enabled=True
New Line.OH_20437313 bus1=34086019.1.0 bus2=20437313.1.0 length=216.824991 units=m linecode=OH-1PH_4AR phases=1 enabled=True
New Line.OH_10579118 bus1=34085040.1.0 bus2=10579118.1.0 length=127.140421 units=m linecode=OH-1PH_4AR phases=1 enabled=True
New Line.OH_10558577 bus1=34086404.3.0 bus2=10558577.3.0 length=92.912186 units=m linecode=OH-1PH_4AR phases=1 enabled=True
New Line.OH_10549426 bus1=10579019.2.0 bus2=10549426.2.0 length=13.790658 units=m linecode=OH-1PH_1/0AR phases=1 enabled=True
New Line.OH_10548988 bus1=10548987.2.0 bus2=10548988.2.0 length=72.648168 units=m linecode=OH-1PH_1/0AR phases=1 enabled=True
New Line.OH_10543795 bus1=10540779.1.2.3.0 bus2=10543795.1.2.3.0 length=82.814673 units=m linecode=OH-3PH_4/0AA phases=3 enabled=True
New Line.OH_34086801 bus1=10558563.3.0 bus2=34086801.3.0 length=112.453374 units=m linecode=OH-1PH_1/0AR phases=1 enabled=True
New Line.OH_34085286 bus1=10549229.1.2.3.0 bus2=34085286.1.2.3.0 length=4.610233 units=m linecode=OH-3PH_795AA phases=3 enabled=True
New Line.OH_20396847 bus1=34095644.1.0 bus2=20396847.1.0 length=7.242332 units=m linecode=OH-1PH_1/0AR phases=1 enabled=True
New Line.OH_10574854 bus1=10574852.3.0 bus2=10574854.3.0 length=39.272164 units=m linecode=OH-1PH_1/0AR phases=1 enabled=True
New Line.OH_10558570 bus1=34086415.3.0 bus2=10558570.3.0 length=282.773093 units=m linecode=OH-1PH_1/0AR phases=1 enabled=True
New Line.OH_10549307 bus1=10549217.2.0 bus2=10549307.2.0 length=7.677543 units=m linecode=OH-1PH_4AR phases=1 enabled=True
New Line.OH_10548982 bus1=34085372.1.0 bus2=10548982.1.0 length=67.280566 units=m linecode=OH-1PH_1/0AR phases=1 enabled=True
New Line.OH_10540779 bus1=10549220.1.2.3.0 bus2=10540779.1.2.3.0 length=13.224600 units=m linecode=OH-3PH_4/0AA phases=3 enabled=True
New Line.OH_40152453 bus1=34086011.1.0 bus2=40152453.1.0 length=37.963596 units=m linecode=OH-1PH_1/0AR phases=1 enabled=True
New Line.OH_34086794 bus1=20344371.2.0 bus2=34086794.2.0 length=49.560183 units=m linecode=OH-1PH_1/0AR phases=1 enabled=True
New Line.OH_34085048 bus1=10549289.3.0 bus2=34085048.3.0 length=70.245096 units=m linecode=OH-1PH_1/0AR phases=1 enabled=True
New Line.OH_20350796 bus1=34084593.2.0 bus2=20350796.2.0 length=63.046173 units=m linecode=OH-1PH_1/0AR phases=1 enabled=True
New Line.OH_10573492 bus1=10573493.3.0 bus2=10573492.3.0 length=33.117836 units=m linecode=OH-1PH_1/0AR phases=1 enabled=True
New Line.OH_10558564 bus1=10558560.3.0 bus2=10558564.3.0 length=7.629393 units=m linecode=OH-1PH_1/0AR phases=1 enabled=True
New Line.OH_10549291 bus1=10549274.2.0 bus2=10549291.2.0 length=12.893357 units=m linecode=OH-1PH_1/0AR phases=1 enabled=True
New Line.OH_10548968 bus1=10548967.1.0 bus2=10548968.1.0 length=32.707558 units=m linecode=OH-1PH_1/0AR phases=1 enabled=True
New Line.OH_10532911 bus1=10561915.3.0 bus2=10532911.3.0 length=192.528912 units=m linecode=OH-1PH_1/0AR phases=1 enabled=True
New Line.OH_34097398 bus1=34086302.3.0 bus2=34097398.3.0 length=65.061204 units=m linecode=OH-1PH_6CU phases=1 enabled=True
New Line.OH_34086403 bus1=10558517.1.2.3.0 bus2=34086403.1.2.3.0 length=57.405913 units=m linecode=OH-3PH_795AA phases=3 enabled=True
New Line.OH_34085042 bus1=34085321.1.0 bus2=34085042.1.0 length=93.506829 units=m linecode=OH-1PH_4AR phases=1 enabled=True
New Line.UG_20344333 bus1=34055522.1.0 bus2=20344333.1.0 length=160.549060 units=m linecode=UG-1PH_1/0URD phases=1 enabled=True
New Line.OH_10560618 bus1=34086799.3.0 bus2=10560618.3.0 length=78.358210 units=m linecode=OH-1PH_1/0AR phases=1 enabled=True
New Line.OH_10558558 bus1=10558559.2.0 bus2=10558558.2.0 length=9.070396 units=m linecode=OH-1PH_1/0AR phases=1 enabled=True
New Line.OH_10549285 bus1=10549291.2.0 bus2=10549285.2.0 length=63.498262 units=m linecode=OH-1PH_1/0AR phases=1 enabled=True
New Line.OH_10548960 bus1=34085480.2.0 bus2=10548960.2.0 length=9.036101 units=m linecode=OH-1PH_1/0AR phases=1 enabled=True
New Line.OH_10526890 bus1=10558524.1.2.3.0 bus2=10526890.1.2.3.0 length=53.695567 units=m linecode=OH-3PH_1/0AR phases=3 enabled=True
New Line.OH_34097392 bus1=34086805.3.0 bus2=34097392.3.0 length=114.885384 units=m linecode=OH-1PH_4AR phases=1 enabled=True
New Line.OH_34086382 bus1=10524061.3.0 bus2=34086382.3.0 length=70.669954 units=m linecode=OH-1PH_1/0AR phases=1 enabled=True
New Line.OH_34085036 bus1=34085037.1.2.3.0 bus2=34085036.1.2.3.0 length=94.771115 units=m linecode=OH-3PH_4/0AA phases=3 enabled=True
New Line.OH_20251419 bus1=34086405.3.0 bus2=20251419.3.0 length=52.661933 units=m linecode=OH-1PH_1/0AR phases=1 enabled=True
New Line.OH_10560337 bus1=34095649.2.0 bus2=10560337.2.0 length=64.155538 units=m linecode=OH-1PH_1/0AR phases=1 enabled=True
New Line.OH_10558551 bus1=10558549.1.0 bus2=10558551.1.0 length=43.554280 units=m linecode=OH-1PH_1/0AR phases=1 enabled=True
New Line.OH_10549274 bus1=34085035.1.2.3.0 bus2=10549274.1.2.3.0 length=56.153464 units=m linecode=OH-3PH_4/0AA phases=3 enabled=True
New Line.OH_10548952 bus1=10548909.1.0 bus2=10548952.1.0 length=9.522562 units=m linecode=OH-1PH_1/0AR phases=1 enabled=True
New Line.OH_10524061 bus1=34086401.3.0 bus2=10524061.3.0 length=87.302147 units=m linecode=OH-1PH_1/0AR phases=1 enabled=True
New Line.OH_34096115 bus1=10558560.1.2.3.0 bus2=34096115.1.2.3.0 length=93.082827 units=m linecode=OH-3PH_795AA phases=3 enabled=True
New Line.OH_34086318 bus1=10558469.1.2.3.0 bus2=34086318.1.2.3.0 length=3.487981 units=m linecode=OH-3PH_4AR phases=3 enabled=True
New Line.OH_34084954 bus1=10579841.2.0 bus2=34084954.2.0 length=50.968706 units=m linecode=OH-1PH_1/0AR phases=1 enabled=True
New Line.OH_20079698 bus1=34085342.1.2.3.0 bus2=20079698.1.2.3.0 length=29.501515 units=m linecode=OH-3PH_1/0AR phases=3 enabled=True
New Line.OH_10559617 bus1=34084666.2.0 bus2=10559617.2.0 length=44.209203 units=m linecode=OH-1PH_4AR phases=1 enabled=True
New Line.OH_10558545 bus1=10558543.2.0 bus2=10558545.2.0 length=41.969702 units=m linecode=OH-1PH_1/0AR phases=1 enabled=True
New Line.OH_10549263 bus1=10549262.1.0 bus2=10549263.1.0 length=13.894296 units=m linecode=OH-1PH_1/0AR phases=1 enabled=True
New Line.OH_10548946 bus1=10548919.2.3.0 bus2=10548946.2.3.0 length=7.654034 units=m linecode=OH-2PH_1/0AR phases=2 enabled=True
New Line.OH_34095665 bus1=34085262.2.0 bus2=34095665.2.0 length=53.938022 units=m linecode=OH-1PH_4AR phases=1 enabled=True
New Line.OH_34086306 bus1=10559090.1.0 bus2=34086306.1.0 length=50.564577 units=m linecode=OH-1PH_6CU phases=1 enabled=True
New Line.OH_34084664 bus1=34095650.2.0 bus2=34084664.2.0 length=76.326116 units=m linecode=OH-1PH_4AR phases=1 enabled=True
New Line.OH_20014991 bus1=10548934.1.2.3.0 bus2=20014991.1.2.3.0 length=71.426759 units=m linecode=OH-3PH_1/0AR phases=3 enabled=True
New Line.OH_10559587 bus1=10559590.3.0 bus2=10559587.3.0 length=135.170917 units=m linecode=OH-1PH_1/0AR phases=1 enabled=True
New Line.OH_10558525 bus1=10558515.1.2.3.0 bus2=10558525.1.2.3.0 length=54.309948 units=m linecode=OH-3PH_1/0AR phases=3 enabled=True
New Line.OH_10549255 bus1=34095666.3.0 bus2=10549255.3.0 length=213.541266 units=m linecode=OH-1PH_4AR phases=1 enabled=True
New Line.OH_10548940 bus1=34095581.2.0 bus2=10548940.2.0 length=195.275256 units=m linecode=OH-1PH_1/0AR phases=1 enabled=True
New Line.OH_34095659 bus1=10549219.1.2.3.0 bus2=34095659.1.2.3.0 length=91.671964 units=m linecode=OH-3PH_795AA phases=3 enabled=True
New Line.OH_34086300 bus1=10558522.1.2.3.0 bus2=34086300.1.2.3.0 length=3.809966 units=m linecode=OH-3PH_795AA phases=3 enabled=True
New Line.OH_34084601 bus1=34084602.1.2.3.0 bus2=34084601.1.2.3.0 length=36.767320 units=m linecode=OH-3PH_1/0AR phases=3 enabled=True
New Line.OH_10580378 bus1=10578709.2.0 bus2=10580378.2.0 length=86.981739 units=m linecode=OH-1PH_1/0AR phases=1 enabled=True
New Line.OH_10559515 bus1=34086007.1.0 bus2=10559515.1.0 length=68.496198 units=m linecode=OH-1PH_6CU phases=1 enabled=True
New Line.OH_10558518 bus1=34086403.1.2.3.0 bus2=10558518.1.2.3.0 length=75.318614 units=m linecode=OH-3PH_795AA phases=3 enabled=True
New Line.OH_10549248 bus1=10549247.3.0 bus2=10549248.3.0 length=63.198415 units=m linecode=OH-1PH_1/0AR phases=1 enabled=True
New Line.OH_10548933 bus1=34090007.1.2.3.0 bus2=10548933.1.2.3.0 length=29.052249 units=m linecode=OH-3PH_1/0AR phases=3 enabled=True
New Line.OH_34095649 bus1=10560281.2.0 bus2=34095649.2.0 length=4.722043 units=m linecode=OH-1PH_1/0AR phases=1 enabled=True
New Line.OH_34086016 bus1=34095668.2.0 bus2=34086016.2.0 length=78.902474 units=m linecode=OH-1PH_4AR phases=1 enabled=True
New Line.UG_34057797 bus1=34054973.3.0 bus2=34057797.3.0 length=78.669679 units=m linecode=UG-1PH_1/0URD phases=1 enabled=True
New Line.UG_10579978 bus1=10579976.3.0 bus2=10579978.3.0 length=83.309917 units=m linecode=UG-1PH_1/0URD phases=1 enabled=True
New Line.OH_10559400 bus1=10559399.1.0 bus2=10559400.1.0 length=8.045147 units=m linecode=OH-1PH_1/0AR phases=1 enabled=True
New Line.OH_10558511 bus1=10558510.1.2.3.0 bus2=10558511.1.2.3.0 length=103.899869 units=m linecode=OH-3PH_795AA phases=3 enabled=True
New Line.OH_10549241 bus1=10549243.2.0 bus2=10549241.2.0 length=4.816277 units=m linecode=OH-1PH_1/0AR phases=1 enabled=True
New Line.OH_10548927 bus1=20396846.1.2.3.0 bus2=10548927.1.2.3.0 length=54.258216 units=m linecode=OH-3PH_4/0AA phases=3 enabled=True
New Line.OH_34095590 bus1=10548906.1.2.3.0 bus2=34095590.1.2.3.0 length=86.998622 units=m linecode=OH-3PH_2CU phases=3 enabled=True
New Line.OH_34086007 bus1=10559558.1.0 bus2=34086007.1.0 length=55.788026 units=m linecode=OH-1PH_6CU phases=1 enabled=True
New Line.UG_34054979 bus1=34054980.1.0 bus2=34054979.1.0 length=120.249242 units=m linecode=UG-1PH_1/0URD phases=1 enabled=True
New Line.OH_10579844 bus1=10549292.2.0 bus2=10579844.2.0 length=7.527768 units=m linecode=OH-1PH_1/0AR phases=1 enabled=True
New Line.OH_10559392 bus1=10559267.1.0 bus2=10559392.1.0 length=95.485127 units=m linecode=OH-1PH_6CU phases=1 enabled=True
New Line.OH_10558484 bus1=10558469.2.0 bus2=10558484.2.0 length=13.416006 units=m linecode=OH-1PH_1/0AR phases=1 enabled=True
New Line.OH_10549228 bus1=10549227.1.2.3.0 bus2=10549228.1.2.3.0 length=126.365241 units=m linecode=OH-3PH_795AA phases=3 enabled=True
New Line.OH_10548920 bus1=34085402.1.2.3.0 bus2=10548920.1.2.3.0 length=130.216113 units=m linecode=OH-3PH_397AA phases=3 enabled=True
New Line.OH_34095281 bus1=34086319.1.0 bus2=34095281.1.0 length=89.864000 units=m linecode=OH-1PH_1/0AR phases=1 enabled=True
New Line.OH_34085492 bus1=10545431.1.2.3.0 bus2=34085492.1.2.3.0 length=48.765785 units=m linecode=OH-3PH_4/0AA phases=3 enabled=True
New Line.UG_34054973 bus1=20344331.3.0 bus2=34054973.3.0 length=153.281885 units=m linecode=UG-1PH_1/0URD phases=1 enabled=True
New Line.OH_10579833 bus1=34084956.2.0 bus2=10579833.2.0 length=51.258293 units=m linecode=OH-1PH_1/0AR phases=1 enabled=True
New Line.OH_10559385 bus1=10559267.1.0 bus2=10559385.1.0 length=103.316844 units=m linecode=OH-1PH_1/0AR phases=1 enabled=True
New Line.OH_10558476 bus1=10558473.1.2.3.0 bus2=10558476.1.2.3.0 length=31.347137 units=m linecode=OH-3PH_1/0AR phases=3 enabled=True
New Line.OH_10549222 bus1=34085488.1.2.3.0 bus2=10549222.1.2.3.0 length=43.688662 units=m linecode=OH-3PH_795AA phases=3 enabled=True
New Line.OH_10548914 bus1=34090004.1.2.3.0 bus2=10548914.1.2.3.0 length=71.029625 units=m linecode=OH-3PH_397AA phases=3 enabled=True
New Line.OH_34091315 bus1=10549018.3.0 bus2=34091315.3.0 length=3.797951 units=m linecode=OH-1PH_1/0AR phases=1 enabled=True
New Line.OH_34085479 bus1=10548931.1.2.3.0 bus2=34085479.1.2.3.0 length=25.726559 units=m linecode=OH-3PH_4/0AA phases=3 enabled=True
New Line.UG_34054967 bus1=34054968.3.0 bus2=34054967.3.0 length=61.757001 units=m linecode=UG-1PH_1/0URD phases=1 enabled=True
New Line.OH_10559040 bus1=10558958.1.0 bus2=10559040.1.0 length=72.571201 units=m linecode=OH-1PH_6CU phases=1 enabled=True
New Line.OH_10557802 bus1=10572565.1.2.3.0 bus2=10557802.1.2.3.0 length=83.523969 units=m linecode=OH-3PH_795AA phases=3 enabled=True
!New Line.OH_10549157 bus1=10549156.1.2.3.0 bus2=10549009.1.2.3.0 length=26.871575 units=m linecode=OH-3PH_795AA phases=3 enabled=True
New Line.OH_10548908 bus1=34095591.1.2.3.0 bus2=10548908.1.2.3.0 length=4.149217 units=m linecode=OH-3PH_2CU phases=3 enabled=True
New Line.OH_34090007 bus1=34095589.1.2.3.0 bus2=34090007.1.2.3.0 length=3.754310 units=m linecode=OH-3PH_1/0AR phases=3 enabled=True
New Line.OH_34085401 bus1=34085313.1.2.3.0 bus2=34085401.1.2.3.0 length=3.658098 units=m linecode=OH-3PH_4/0AA phases=3 enabled=True
New Line.UG_34054927 bus1=20344327.1.0 bus2=34054927.1.0 length=19.088875 units=m linecode=UG-1PH_1/0URD phases=1 enabled=True
New Line.OH_10579827 bus1=34085492.3.0 bus2=10579827.3.0 length=7.468951 units=m linecode=OH-1PH_1/0AR phases=1 enabled=True
New Line.OH_10558584 bus1=10558583.2.0 bus2=10558584.2.0 length=67.808598 units=m linecode=OH-1PH_1/0AR phases=1 enabled=True
New Line.OH_10556735 bus1=10579118.1.0 bus2=10556735.1.0 length=113.346017 units=m linecode=OH-1PH_1/0AR phases=1 enabled=True
New Line.OH_10549011 bus1=10549216.1.2.3.0 bus2=10549011.1.2.3.0 length=48.217706 units=m linecode=OH-3PH_795AA phases=3 enabled=True
New Line.OH_10548901 bus1=34084601.1.2.3.0 bus2=10548901.1.2.3.0 length=36.764445 units=m linecode=OH-3PH_1/0AR phases=3 enabled=True
New Line.OH_34087256 bus1=20028683.1.2.3.0 bus2=34087256.1.2.3.0 length=54.303674 units=m linecode=OH-3PH_4AR phases=3 enabled=True
New Line.OH_34085342 bus1=10549219.1.2.3.0 bus2=34085342.1.2.3.0 length=3.799775 units=m linecode=OH-3PH_1/0AR phases=3 enabled=True
New Line.OH_20437314 bus1=20437313.1.0 bus2=20437314.1.0 length=28.500678 units=m linecode=OH-1PH_1/0AR phases=1 enabled=True
New Line.OH_10579185 bus1=10549433.1.0 bus2=10579185.1.0 length=72.649698 units=m linecode=OH-1PH_1/0AR phases=1 enabled=True
New Line.OH_10558578 bus1=34086404.3.0 bus2=10558578.3.0 length=17.789837 units=m linecode=OH-1PH_1/0AR phases=1 enabled=True
New Line.OH_10549431 bus1=34086013.2.0 bus2=10549431.2.0 length=7.958843 units=m linecode=OH-1PH_1/0AR phases=1 enabled=True
New Line.OH_10548989 bus1=34084592.2.0 bus2=10548989.2.0 length=52.919773 units=m linecode=OH-1PH_1/0AR phases=1 enabled=True
New Line.OH_10544883 bus1=34085311.1.2.3.0 bus2=10544883.1.2.3.0 length=75.096279 units=m linecode=OH-3PH_4/0AA phases=3 enabled=True
New Line.OH_34086802 bus1=10532911.3.0 bus2=34086802.3.0 length=154.468306 units=m linecode=OH-1PH_1/0AR phases=1 enabled=True
New Line.OH_34085311 bus1=34095661.1.2.3.0 bus2=34085311.1.2.3.0 length=3.803718 units=m linecode=OH-3PH_4/0AA phases=3 enabled=True
New Line.OH_20396849 bus1=20396847.1.0 bus2=20396849.1.0 length=9.975549 units=m linecode=OH-1PH_1/0AR phases=1 enabled=True
New Line.OH_10578709 bus1=34085044.2.0 bus2=10578709.2.0 length=241.029336 units=m linecode=OH-1PH_4AR phases=1 enabled=True
New Line.OH_10558571 bus1=34086400.3.0 bus2=10558571.3.0 length=101.892754 units=m linecode=OH-1PH_6CU phases=1 enabled=True
New Line.OH_10549309 bus1=10549307.2.0 bus2=10549309.2.0 length=81.656781 units=m linecode=OH-1PH_4AR phases=1 enabled=True
New Line.OH_10548983 bus1=34090001.1.0 bus2=10548983.1.0 length=42.885362 units=m linecode=OH-1PH_1/0AR phases=1 enabled=True
New Line.OH_10541616 bus1=34085952.3.0 bus2=10541616.3.0 length=89.784982 units=m linecode=OH-1PH_4AR phases=1 enabled=True
New Line.OH_40154810 bus1=34086011.1.0 bus2=40154810.1.0 length=163.511224 units=m linecode=OH-1PH_4AR phases=1 enabled=True
New Line.OH_34086796 bus1=10543079.1.2.3.0 bus2=34086796.1.2.3.0 length=62.054364 units=m linecode=OH-3PH_4AR phases=3 enabled=True
New Line.OH_34085260 bus1=34095665.2.0 bus2=34085260.2.0 length=84.035649 units=m linecode=OH-1PH_4AR phases=1 enabled=True
New Line.OH_20396671 bus1=34086796.1.2.3.0 bus2=20396671.1.2.3.0 length=60.977239 units=m linecode=OH-3PH_4AR phases=3 enabled=True
New Line.OH_10573493 bus1=34085341.3.0 bus2=10573493.3.0 length=13.833219 units=m linecode=OH-1PH_1/0AR phases=1 enabled=True
New Line.OH_10558565 bus1=10558566.3.0 bus2=10558565.3.0 length=54.766288 units=m linecode=OH-1PH_1/0AR phases=1 enabled=True
New Line.OH_10549292 bus1=10548007.1.2.3.0 bus2=10549292.1.2.3.0 length=38.659065 units=m linecode=OH-3PH_4/0AA phases=3 enabled=True
New Line.OH_10548976 bus1=10548906.1.0 bus2=10548976.1.0 length=7.890558 units=m linecode=OH-1PH_1/0AR phases=1 enabled=True
New Line.OH_10536946 bus1=20344324.1.2.3.0 bus2=10536946.1.2.3.0 length=6.754244 units=m linecode=OH-3PH_4AR phases=3 enabled=True
New Line.OH_40013213 bus1=40014844.1.2.3.0 bus2=40013213.1.2.3.0 length=13.792218 units=m linecode=OH-3PH_1/0AR phases=3 enabled=True
New Line.OH_34086404 bus1=10558576.3.0 bus2=34086404.3.0 length=3.803001 units=m linecode=OH-1PH_4AR phases=1 enabled=True
New Line.OH_34085043 bus1=10549288.2.0 bus2=34085043.2.0 length=112.424939 units=m linecode=OH-1PH_4AR phases=1 enabled=True
New Line.UG_20344334 bus1=34054976.1.0 bus2=20344334.1.0 length=116.616338 units=m linecode=UG-1PH_1/0URD phases=1 enabled=True
New Line.OH_10561915 bus1=10553426.3.0 bus2=10561915.3.0 length=7.789344 units=m linecode=OH-1PH_1/0AR phases=1 enabled=True
New Line.OH_10558559 bus1=10558561.2.0 bus2=10558559.2.0 length=60.878491 units=m linecode=OH-1PH_1/0AR phases=1 enabled=True
New Line.OH_10549286 bus1=10549426.2.0 bus2=10549286.2.0 length=55.301734 units=m linecode=OH-1PH_1/0AR phases=1 enabled=True
New Line.OH_10548961 bus1=10548960.2.0 bus2=10548961.2.0 length=110.614147 units=m linecode=OH-1PH_1/0AR phases=1 enabled=True
New Line.OH_10528321 bus1=34086018.2.0 bus2=10528321.2.0 length=79.504540 units=m linecode=OH-1PH_1/0AR phases=1 enabled=True
New Line.OH_34097393 bus1=10523041.3.0 bus2=34097393.3.0 length=43.944005 units=m linecode=OH-1PH_4AR phases=1 enabled=True
New Line.OH_34086383 bus1=10558580.3.0 bus2=34086383.3.0 length=56.157454 units=m linecode=OH-1PH_1/0AR phases=1 enabled=True
New Line.OH_34085037 bus1=34086013.1.2.3.0 bus2=34085037.1.2.3.0 length=31.816690 units=m linecode=OH-3PH_4/0AA phases=3 enabled=True
New Line.OH_20344324 bus1=34087256.1.2.3.0 bus2=20344324.1.2.3.0 length=66.353808 units=m linecode=OH-3PH_4AR phases=3 enabled=True
New Line.OH_10560338 bus1=34095649.2.0 bus2=10560338.2.0 length=109.074948 units=m linecode=OH-1PH_1/0AR phases=1 enabled=True
New Line.OH_10558552 bus1=34086381.1.0 bus2=10558552.1.0 length=94.903162 units=m linecode=OH-1PH_1/0AR phases=1 enabled=True
New Line.OH_10549276 bus1=34085312.1.2.3.0 bus2=10549276.1.2.3.0 length=48.089612 units=m linecode=OH-3PH_4/0AA phases=3 enabled=True
New Line.OH_10548953 bus1=10548952.1.0 bus2=10548953.1.0 length=89.887106 units=m linecode=OH-1PH_1/0AR phases=1 enabled=True
New Line.OH_10524153 bus1=34086382.3.0 bus2=10524153.3.0 length=63.547198 units=m linecode=OH-1PH_1/0AR phases=1 enabled=True
New Line.OH_34096116 bus1=10558511.1.2.3.0 bus2=34096116.1.2.3.0 length=4.957584 units=m linecode=OH-3PH_795AA phases=3 enabled=True
New Line.OH_34086319 bus1=10559487.1.0 bus2=34086319.1.0 length=3.803809 units=m linecode=OH-1PH_1/0AR phases=1 enabled=True
New Line.OH_34084955 bus1=10549293.1.2.3.0 bus2=34084955.1.2.3.0 length=3.799026 units=m linecode=OH-3PH_4/0AA phases=3 enabled=True
New Line.OH_20079699 bus1=20079698.1.2.3.0 bus2=20079699.1.2.3.0 length=104.066277 units=m linecode=OH-3PH_1/0AR phases=3 enabled=True
New Line.OH_10559735 bus1=10548923.1.2.3.0 bus2=10559735.1.2.3.0 length=159.427491 units=m linecode=OH-3PH_795AA phases=3 enabled=True
New Line.OH_10558546 bus1=10558518.3.0 bus2=10558546.3.0 length=7.577866 units=m linecode=OH-1PH_1/0AR phases=1 enabled=True
New Line.OH_10549264 bus1=10549221.2.0 bus2=10549264.2.0 length=7.340895 units=m linecode=OH-1PH_1/0AR phases=1 enabled=True
New Line.OH_10548947 bus1=34090000.1.0 bus2=10548947.1.0 length=19.303099 units=m linecode=OH-1PH_1/0AR phases=1 enabled=True
New Line.OH_34095666 bus1=34085953.3.0 bus2=34095666.3.0 length=3.992102 units=m linecode=OH-1PH_4AR phases=1 enabled=True
New Line.OH_34086307 bus1=10559182.1.0 bus2=34086307.1.0 length=113.860879 units=m linecode=OH-1PH_6CU phases=1 enabled=True
New Line.OH_34084665 bus1=34084664.2.0 bus2=34084665.2.0 length=88.621155 units=m linecode=OH-1PH_4AR phases=1 enabled=True
New Line.OH_20014992 bus1=34095589.1.0 bus2=20014992.1.0 length=32.398817 units=m linecode=OH-1PH_1/0AR phases=1 enabled=True
New Line.OH_10559588 bus1=34091314.3.0 bus2=10559588.3.0 length=97.413818 units=m linecode=OH-1PH_1/0AR phases=1 enabled=True
New Line.OH_10558540 bus1=10558516.1.0 bus2=10558540.1.0 length=7.788756 units=m linecode=OH-1PH_1/0AR phases=1 enabled=True
New Line.OH_10549258 bus1=10584630.3.0 bus2=10549258.3.0 length=116.894405 units=m linecode=OH-1PH_1/0AR phases=1 enabled=True
New Line.OH_10548941 bus1=10548942.3.0 bus2=10548941.3.0 length=77.299014 units=m linecode=OH-1PH_1/0AR phases=1 enabled=True
New Line.OH_34095660 bus1=10542098.1.2.3.0 bus2=34095660.1.2.3.0 length=3.797343 units=m linecode=OH-3PH_795AA phases=3 enabled=True
New Line.OH_34086301 bus1=10558573.3.0 bus2=34086301.3.0 length=126.831919 units=m linecode=OH-1PH_6CU phases=1 enabled=True
New Line.OH_34084602 bus1=10548902.1.2.3.0 bus2=34084602.1.2.3.0 length=79.685254 units=m linecode=OH-3PH_1/0AR phases=3 enabled=True
New Line.OH_10580818 bus1=K21.1.2.3.0 bus2=10580818.1.2.3.0 length=61.431206 units=m linecode=OH-3PH_795AA phases=3 enabled=True
New Line.OH_10559537 bus1=10549229.1.0 bus2=10559537.1.0 length=13.455512 units=m linecode=OH-1PH_6CU phases=1 enabled=True
New Line.OH_10558520 bus1=10553427.1.2.3.0 bus2=10558520.1.2.3.0 length=247.569309 units=m linecode=OH-3PH_795AA phases=3 enabled=True
New Line.OH_10549249 bus1=10549225.1.0 bus2=10549249.1.0 length=12.505018 units=m linecode=OH-1PH_1/0AR phases=1 enabled=True
New Line.OH_10548934 bus1=10548921.1.2.3.0 bus2=10548934.1.2.3.0 length=8.032498 units=m linecode=OH-3PH_1/0AR phases=3 enabled=True
New Line.OH_34095650 bus1=10559617.2.0 bus2=34095650.2.0 length=25.022442 units=m linecode=OH-1PH_4AR phases=1 enabled=True
New Line.OH_34086017 bus1=34086016.2.0 bus2=34086017.2.0 length=3.797145 units=m linecode=OH-1PH_4AR phases=1 enabled=True
New Line.UG_34057798 bus1=34054975.2.0 bus2=34057798.2.0 length=60.579649 units=m linecode=UG-1PH_1/0URD phases=1 enabled=True
New Line.UG_10580150 bus1=10580165.1.2.3.0 bus2=10580150.1.2.3.0 length=256.021574 units=m linecode=UG-3PH_1/0URD phases=3 enabled=True
New Line.OH_10559407 bus1=34095281.1.0 bus2=10559407.1.0 length=100.884983 units=m linecode=OH-1PH_1/0AR phases=1 enabled=True
New Line.OH_10558513 bus1=34096115.1.2.3.0 bus2=10558513.1.2.3.0 length=104.166132 units=m linecode=OH-3PH_795AA phases=3 enabled=True
New Line.OH_10549243 bus1=10549244.2.0 bus2=10549243.2.0 length=42.942219 units=m linecode=OH-1PH_6CU phases=1 enabled=True
New Line.OH_10548928 bus1=20396846.1.2.3.0 bus2=10548928_open.1.2.3.0 length=32.198573 units=m linecode=OH-3PH_4/0AA phases=3 enabled=True
New Line.OH_34095591 bus1=34084616.1.2.3.0 bus2=34095591.1.2.3.0 length=97.023200 units=m linecode=OH-3PH_2CU phases=3 enabled=True
New Line.OH_34086008 bus1=10559735.1.2.3.0 bus2=34086008.1.2.3.0 length=72.890534 units=m linecode=OH-3PH_795AA phases=3 enabled=True
New Line.UG_34054980 bus1=20344333.1.0 bus2=34054980.1.0 length=150.566367 units=m linecode=UG-1PH_1/0URD phases=1 enabled=True
New Line.OH_10579845 bus1=10579834.3.0 bus2=10579845.3.0 length=84.176236 units=m linecode=OH-1PH_1/0AR phases=1 enabled=True
New Line.OH_10559393 bus1=34086308.1.0 bus2=10559393.1.0 length=93.258844 units=m linecode=OH-1PH_6CU phases=1 enabled=True
New Line.UG_10558494 bus1=10558475.1.2.3.0 bus2=10558494.1.2.3.0 length=12.200447 units=m linecode=UG-3PH_1/0URD phases=3 enabled=True
New Line.OH_10549229 bus1=10549228.1.2.3.0 bus2=10549229.1.2.3.0 length=90.909992 units=m linecode=OH-3PH_795AA phases=3 enabled=True
New Line.OH_10548921 bus1=10548920.1.2.3.0 bus2=10548921.1.2.3.0 length=44.343441 units=m linecode=OH-3PH_397AA phases=3 enabled=True
!New Line.OH_34095287 bus1=34095289.1.0 bus2=10532582.1.0 length=91.209090 units=m linecode=OH-1PH_1/0AR phases=1 enabled=True
New Line.OH_34085493 bus1=34085492.1.2.3.0 bus2=34085493.1.2.3.0 length=68.842405 units=m linecode=OH-3PH_4/0AA phases=3 enabled=True
New Line.UG_34054974 bus1=34057798.2.0 bus2=34054974.2.0 length=141.425856 units=m linecode=UG-1PH_1/0URD phases=1 enabled=True
New Line.OH_10579834 bus1=34084955.3.0 bus2=10579834.3.0 length=14.021715 units=m linecode=OH-1PH_1/0AR phases=1 enabled=True
New Line.OH_10559386 bus1=10559182.1.0 bus2=10559386.1.0 length=102.011044 units=m linecode=OH-1PH_1/0AR phases=1 enabled=True
New Line.OH_10558477 bus1=10558478.3.0 bus2=10558477.3.0 length=46.061713 units=m linecode=OH-1PH_1/0AR phases=1 enabled=True
New Line.OH_10549223 bus1=34085489.1.2.3.0 bus2=10549223.1.2.3.0 length=107.898462 units=m linecode=OH-3PH_795AA phases=3 enabled=True
New Line.OH_10548915 bus1=10548914.1.2.3.0 bus2=10548915.1.2.3.0 length=136.842620 units=m linecode=OH-3PH_397AA phases=3 enabled=True
New Line.OH_34091439 bus1=34097392.3.0 bus2=34091439.3.0 length=99.823811 units=m linecode=OH-1PH_4AR phases=1 enabled=True
New Line.OH_34085480 bus1=10548907.1.2.3.0 bus2=34085480.1.2.3.0 length=61.900727 units=m linecode=OH-3PH_2CU phases=3 enabled=True
New Line.UG_34054968 bus1=34054969.3.0 bus2=34054968.3.0 length=77.794854 units=m linecode=UG-1PH_1/0URD phases=1 enabled=True
New Line.OH_10559057 bus1=34086402.1.0 bus2=10559057.1.0 length=101.401212 units=m linecode=OH-1PH_6CU phases=1 enabled=True
New Line.OH_10558215 bus1=10549303.3.0 bus2=10558215.3.0 length=137.071629 units=m linecode=OH-1PH_1/0AR phases=1 enabled=True
New Line.OH_10549216 bus1=10549217.1.2.3.0 bus2=10549216.1.2.3.0 length=37.502619 units=m linecode=OH-3PH_795AA phases=3 enabled=True
New Line.OH_10548909 bus1=10548908.1.2.3.0 bus2=10548909.1.2.3.0 length=101.268997 units=m linecode=OH-3PH_2CU phases=3 enabled=True