//IEEE 8500 node test system.
//  Generated 18-Nov-2016 16:41:01 using Matlab 8.5.0.197613 (R2015a).

clock {
     timezone PST+8PDT;
     starttime '2000-09-01 12:00:00';
     stoptime '2000-09-01 12:01:00';
}

module powerflow {
    solver_method FBS;
    line_limits TRUE;
    default_maximum_voltage_error 1e-4;
};
module market;
module tape;

#include "schedules.glm";

#set profiler=1;
#set relax_naming_rules=1;
#set suppress_repeat_messages=0;
#set savefile="8500_balanced_FBS.xml";
#set randomseed=10
//#define stylesheet=C:/Documents and Settings/d3x289/My Documents/GridLAB-D/trunk/VS2005/gridlabd-2_0;

// Regulators and regulator configurations

object regulator_configuration {
     connect_type 1;
     name reg_config_1;
     Control LINE_DROP_COMP;
     band_center 125.0;
     band_width 2.0;
     current_transducer_ratio 0;
     power_transducer_ratio 60.0;
     compensator_r_setting_A 0.0;
     compensator_x_setting_A 0.0;
     compensator_r_setting_B 0.0;
     compensator_x_setting_B 0.0;
     compensator_r_setting_C 0.0;
     compensator_x_setting_C 0.0;
     time_delay 60.0;
     raise_taps 16;
     lower_taps 16;
     regulation 0.1;
     Type B;
}

object regulator_configuration {
     connect_type 1;
     name reg_config_2;
     Control LINE_DROP_COMP;
     band_center 124.7;
     band_width 2.0;
     current_transducer_ratio 0;
     power_transducer_ratio 60.0;
     compensator_r_setting_A 0.0;
     compensator_x_setting_A 0.0;
     compensator_r_setting_B 0.0;
     compensator_x_setting_B 0.0;
     compensator_r_setting_C 0.0;
     compensator_x_setting_C 0.0;
     time_delay 120.0;
     raise_taps 16;
     lower_taps 16;
     regulation 0.1;
     Type B;
}

object regulator_configuration {
     connect_type 1;
     name reg_config_3;
     Control LINE_DROP_COMP;
     band_center 124.7;
     band_width 2.0;
     current_transducer_ratio 0;
     power_transducer_ratio 60.0;
     compensator_r_setting_A 0.0;
     compensator_x_setting_A 0.0;
     compensator_r_setting_B 0.0;
     compensator_x_setting_B 0.0;
     compensator_r_setting_C 0.0;
     compensator_x_setting_C 0.0;
     time_delay 75.0;
     raise_taps 16;
     lower_taps 16;
     regulation 0.1;
     Type B;
}

object regulator_configuration {
     connect_type 1;
     name reg_config_4;
     Control LINE_DROP_COMP;
     band_center 125.0;
     band_width 2.0;
     current_transducer_ratio 0;
     power_transducer_ratio 60.0;
     compensator_r_setting_A 0.0;
     compensator_x_setting_A 0.0;
     compensator_r_setting_B 0.0;
     compensator_x_setting_B 0.0;
     compensator_r_setting_C 0.0;
     compensator_x_setting_C 0.0;
     time_delay 90.0;
     raise_taps 16;
     lower_taps 16;
     regulation 0.1;
     Type B;
}

object regulator {
     name "FEEDER_REG";
     phases ABCN;
     from "regxfmr_HVMV_Sub_LSB";
     to "_HVMV_Sub_LSB";
     configuration reg_config_1;
}

object regulator {
     name VREG2;
     phases ABCN;
     from "regxfmr_190-8593";
     to "190-8593";
     configuration reg_config_2;
}

object regulator {
     name VREG3;
     phases ABCN;
     from "regxfmr_190-8581";
     to "190-8581";
     configuration reg_config_3;
}

object regulator {
     name VREG4;
     phases ABCN;
     from "regxfmr_190-7361";
     to "190-7361";
     configuration reg_config_4;
}

// Capacitors

object capacitor {
     parent R42246;
     phases ABCN;
     pt_phase ABC;
     name CapBank0;
     phases_connected ABCN;
     control VARVOLT;
     capacitor_A 0.4 MVAr;
     capacitor_B 0.4 MVAr;
     capacitor_C 0.4 MVAr;
     control_level INDIVIDUAL;
     voltage_set_high 7680.0;
     voltage_set_low 6840.0;
     VAr_set_high 475.0 kVAr;
     VAr_set_low -350.0 kVAr;
     time_delay 480.0;
     lockout_time 1;
     remote_sense CAP_3;
     remote_sense_B L2823592_CAP;
     nominal_voltage 7199.558;
}

object capacitor {
     parent R42247;
     pt_phase ABC;
     phases ABCN;
     name CapBank1;
     phases_connected ABCN;
     control VARVOLT;
     capacitor_A 0.3 MVAr;
     capacitor_B 0.3 MVAr;
     capacitor_C 0.3 MVAr;
     control_level INDIVIDUAL;
     voltage_set_high 7680.0;
     voltage_set_low 6840.0;
     VAr_set_high 425.0 kVAr;
     VAr_set_low -350.0 kVAr;
     time_delay 300.0;
     remote_sense CAP_2;
     lockout_time 1;
     remote_sense_B Q16483_CAP;
     nominal_voltage 7199.558;
}

object capacitor {
     parent R20185;
     pt_phase ABC;
     phases ABCN;
     name CapBank2;
     phases_connected ABCN;
     control VARVOLT;
     capacitor_A 0.3 MVAr;
     capacitor_B 0.3 MVAr;
     capacitor_C 0.3 MVAr;
     control_level INDIVIDUAL;
     voltage_set_high 7800.0;
     voltage_set_low 6840.0;
     VAr_set_high 450.0 kVAr;
     VAr_set_low -350.0 kVAr;
     time_delay 180.0;
     lockout_time 1;
     remote_sense CAP_1;
     remote_sense_B Q16642_CAP;
     nominal_voltage 7199.558;
}

object capacitor {
     phases ABCN;
     parent R18242;
     name CapBank3;
     phases_connected ABCN;
     control MANUAL;
     capacitor_A 0.3 MVAr;
     capacitor_B 0.3 MVAr;
     capacitor_C 0.3 MVAr;
     control_level INDIVIDUAL;
     switchA CLOSED;
     switchB CLOSED;
     switchC CLOSED;
     nominal_voltage 7199.558;
}

// Transformer and configuration at feeder

object transformer_configuration:27500 {
     connect_type DELTA_GWYE;
     name trans_config_1;
     install_type PADMOUNT;
     power_rating 27500kVA;
     primary_voltage 115.0kV;
     secondary_voltage 12.47kV;
     reactance 0.15510;
     resistance 0.01344;
}

object transformer {
     phases ABCN;
     name "HVMV_Sub";
     from "HVMV_Sub_HSB";
     to "regxfmr_HVMV_Sub_LSB";
     configuration trans_config_1;
}

// Center-tap transformer configurations

object transformer_configuration {
     name "1515A";
     connect_type SINGLE_PHASE_CENTER_TAPPED;
     install_type POLETOP;
     primary_voltage 7200.0V;
     secondary_voltage 120.0V;
     power_rating 15.0kVA;
     powerA_rating 15.0kVA;
     impedance 0.006000+0.013600j;
     impedance1 0.012000+0.006800j;
     impedance2 0.012000+0.006800j;
     shunt_impedance 1728000+691200j;
}

object transformer_configuration {
     name "2525B";
     connect_type SINGLE_PHASE_CENTER_TAPPED;
     install_type POLETOP;
     primary_voltage 7200.0;
     secondary_voltage 120.0;
     power_rating 25.0;
     powerB_rating 25.0;
     impedance 0.006+0.0136j;
     impedance1 0.012+0.0204j;
     impedance2 0.012+0.0204j;
     shunt_impedance 1036800+414720j;
}

object transformer_configuration {
     name "1515C";
     connect_type SINGLE_PHASE_CENTER_TAPPED;
     install_type POLETOP;
     primary_voltage 7200.0;
     secondary_voltage 120.0;
     power_rating 15.0;
     powerC_rating 15.0;
     impedance 0.006+0.0136j;
     impedance1 0.012+0.0204j;
     impedance2 0.012+0.0204j;
     shunt_impedance 1728000+691200j;
}

object transformer_configuration {
     name "3838A";
     connect_type SINGLE_PHASE_CENTER_TAPPED;
     install_type POLETOP;
     primary_voltage 7200.0;
     secondary_voltage 120.0;
     power_rating 37.5;
     powerA_rating 37.5;
     impedance 0.006+0.0136j;
     impedance1 0.012+0.0204j;
     impedance2 0.012+0.0204j;
     shunt_impedance 691200+276480j;
}

object transformer_configuration {
     name "1515B";
     connect_type SINGLE_PHASE_CENTER_TAPPED;
     install_type POLETOP;
     primary_voltage 7200.0;
     secondary_voltage 120.0;
     power_rating 15.0;
     powerB_rating 15.0;
     impedance 0.006+0.0136j;
     impedance1 0.012+0.0204j;
     impedance2 0.012+0.0204j;
     shunt_impedance 1728000+691200j;
}

object transformer_configuration {
     name "5050A";
     connect_type SINGLE_PHASE_CENTER_TAPPED;
     install_type POLETOP;
     primary_voltage 7200.0;
     secondary_voltage 120.0;
     power_rating 50.0;
     powerA_rating 50.0;
     impedance 0.006+0.0136j;
     impedance1 0.012+0.0204j;
     impedance2 0.012+0.0204j;
     shunt_impedance 518400+207360j;
}

object transformer_configuration {
     name "5050B";
     connect_type SINGLE_PHASE_CENTER_TAPPED;
     install_type POLETOP;
     primary_voltage 7200.0;
     secondary_voltage 120.0;
     power_rating 50.0;
     powerB_rating 50.0;
     impedance 0.006+0.0136j;
     impedance1 0.012+0.0204j;
     impedance2 0.012+0.0204j;
     shunt_impedance 518400+207360j;
}

object transformer_configuration {
     name "5050C";
     connect_type SINGLE_PHASE_CENTER_TAPPED;
     install_type POLETOP;
     primary_voltage 7200.0;
     secondary_voltage 120.0;
     power_rating 50.0;
     powerC_rating 50.0;
     impedance 0.006+0.0136j;
     impedance1 0.012+0.0204j;
     impedance2 0.012+0.0204j;
     shunt_impedance 518400+207360j;
}

object transformer_configuration {
     name "1010A";
     connect_type SINGLE_PHASE_CENTER_TAPPED;
     install_type POLETOP;
     primary_voltage 7200.0;
     secondary_voltage 120.0;
     power_rating 10.0;
     powerA_rating 10.0;
     impedance 0.006+0.0136j;
     impedance1 0.012+0.0204j;
     impedance2 0.012+0.0204j;
     shunt_impedance 2592000+1036800j;
}

object transformer_configuration {
     name "1010B";
     connect_type SINGLE_PHASE_CENTER_TAPPED;
     install_type POLETOP;
     primary_voltage 7200.0;
     secondary_voltage 120.0;
     power_rating 10.0;
     powerB_rating 10.0;
     impedance 0.006+0.0136j;
     impedance1 0.012+0.0204j;
     impedance2 0.012+0.0204j;
     shunt_impedance 2592000+1036800j;
}

object transformer_configuration {
     name "2525A";
     connect_type SINGLE_PHASE_CENTER_TAPPED;
     install_type POLETOP;
     primary_voltage 7200.0;
     secondary_voltage 120.0;
     power_rating 25.0;
     powerA_rating 25.0;
     impedance 0.006+0.0136j;
     impedance1 0.012+0.0204j;
     impedance2 0.012+0.0204j;
     shunt_impedance 1036800+414720j;
}

object transformer_configuration {
     name "1010C";
     connect_type SINGLE_PHASE_CENTER_TAPPED;
     install_type POLETOP;
     primary_voltage 7200.0;
     secondary_voltage 120.0;
     power_rating 10.0;
     powerC_rating 10.0;
     impedance 0.006+0.0136j;
     impedance1 0.012+0.0204j;
     impedance2 0.012+0.0204j;
     shunt_impedance 2592000+1036800j;
}

object transformer_configuration {
     name "2525C";
     connect_type SINGLE_PHASE_CENTER_TAPPED;
     install_type POLETOP;
     primary_voltage 7200.0;
     secondary_voltage 120.0;
     power_rating 25.0;
     powerC_rating 25.0;
     impedance 0.006+0.0136j;
     impedance1 0.012+0.0204j;
     impedance2 0.012+0.0204j;
     shunt_impedance 1036800+414720j;
}

object transformer_configuration {
     name "7575C";
     connect_type SINGLE_PHASE_CENTER_TAPPED;
     install_type POLETOP;
     primary_voltage 7200.0;
     secondary_voltage 120.0;
     power_rating 75.0;
     powerC_rating 75.0;
     impedance 0.006+0.0136j;
     impedance1 0.012+0.0204j;
     impedance2 0.012+0.0204j;
     shunt_impedance 345600+138240j;
}

object transformer_configuration {
     name "3838C";
     connect_type SINGLE_PHASE_CENTER_TAPPED;
     install_type POLETOP;
     primary_voltage 7200.0;
     secondary_voltage 120.0;
     power_rating 37.5;
     powerC_rating 37.5;
     impedance 0.006+0.0136j;
     impedance1 0.012+0.0204j;
     impedance2 0.012+0.0204j;
     shunt_impedance 691200+276480j;
}

object transformer_configuration {
     name "55B";
     connect_type SINGLE_PHASE_CENTER_TAPPED;
     install_type POLETOP;
     primary_voltage 7200.0;
     secondary_voltage 120.0;
     power_rating 5.0;
     powerB_rating 5.0;
     impedance 0.006+0.0136j;
     impedance1 0.012+0.0204j;
     impedance2 0.012+0.0204j;
     shunt_impedance 5184000+2073600j;
}

object transformer_configuration {
     name "3838B";
     connect_type SINGLE_PHASE_CENTER_TAPPED;
     install_type POLETOP;
     primary_voltage 7200.0;
     secondary_voltage 120.0;
     power_rating 37.5;
     powerB_rating 37.5;
     impedance 0.006+0.0136j;
     impedance1 0.012+0.0204j;
     impedance2 0.012+0.0204j;
     shunt_impedance 691200+276480j;
}

object transformer_configuration {
     name "7575A";
     connect_type SINGLE_PHASE_CENTER_TAPPED;
     install_type POLETOP;
     primary_voltage 7200.0;
     secondary_voltage 120.0;
     power_rating 75.0;
     powerA_rating 75.0;
     impedance 0.006+0.0136j;
     impedance1 0.012+0.0204j;
     impedance2 0.012+0.0204j;
     shunt_impedance 345600+138240j;
}

object transformer_configuration {
     name "7575B";
     connect_type SINGLE_PHASE_CENTER_TAPPED;
     install_type POLETOP;
     primary_voltage 7200.0;
     secondary_voltage 120.0;
     power_rating 75.0;
     powerB_rating 75.0;
     impedance 0.006+0.0136j;
     impedance1 0.012+0.0204j;
     impedance2 0.012+0.0204j;
     shunt_impedance 345600+138240j;
}

object transformer_configuration {
     name "55A";
     connect_type SINGLE_PHASE_CENTER_TAPPED;
     install_type POLETOP;
     primary_voltage 7200.0;
     secondary_voltage 120.0;
     power_rating 5.0;
     powerA_rating 5.0;
     impedance 0.006+0.0136j;
     impedance1 0.012+0.0204j;
     impedance2 0.012+0.0204j;
     shunt_impedance 5184000+2073600j;
}

object transformer_configuration {
     name "250250A";
     connect_type SINGLE_PHASE_CENTER_TAPPED;
     install_type POLETOP;
     primary_voltage 7200.0;
     secondary_voltage 120.0;
     power_rating 250.0;
     powerA_rating 250.0;
     impedance 0.006+0.0136j;
     impedance1 0.012+0.0204j;
     impedance2 0.012+0.0204j;
     shunt_impedance 103680+41472j;
}

object transformer_configuration {
     name "250250B";
     connect_type SINGLE_PHASE_CENTER_TAPPED;
     install_type POLETOP;
     primary_voltage 7200.0;
     secondary_voltage 120.0;
     power_rating 250.0;
     powerB_rating 250.0;
     impedance 0.006+0.0136j;
     impedance1 0.012+0.0204j;
     impedance2 0.012+0.0204j;
     shunt_impedance 103680+41472j;
}

object transformer_configuration {
     name "250250C";
     connect_type SINGLE_PHASE_CENTER_TAPPED;
     install_type POLETOP;
     primary_voltage 7200.0;
     secondary_voltage 120.0;
     power_rating 250.0;
     powerC_rating 250.0;
     impedance 0.006+0.0136j;
     impedance1 0.012+0.0204j;
     impedance2 0.012+0.0204j;
     shunt_impedance 103680+41472j;
}

object transformer_configuration {
     name "100100B";
     connect_type SINGLE_PHASE_CENTER_TAPPED;
     install_type POLETOP;
     primary_voltage 7200.0;
     secondary_voltage 120.0;
     power_rating 100.0;
     powerB_rating 100.0;
     impedance 0.006+0.0136j;
     impedance1 0.012+0.0204j;
     impedance2 0.012+0.0204j;
     shunt_impedance 259200+103680j;
}

// Center-tap transformers

object transformer {
     configuration "1515A";
     name "T21396254A";
     from "L2804253";
     to "X2804253A";
     nominal_voltage 7199.558;
     phases AS;
}

object transformer {
     configuration "2525B";
     name "T5321859B";
     from "L3254213";
     to "X3254213B";
     nominal_voltage 7199.558;
     phases BS;
}

object transformer {
     configuration "2525B";
     name "T5391741B";
     from "L3216339";
     to "X3216339B";
     nominal_voltage 7199.558;
     phases BS;
}

object transformer {
     configuration "1515A";
     name "T5293672A";
     from "L2954355";
     to "X2954355A";
     nominal_voltage 7199.558;
     phases AS;
}

object transformer {
     configuration "1515C";
     name "T21474711C";
     from "L2861197";
     to "X2861197C";
     nominal_voltage 7199.558;
     phases CS;
}

object transformer {
     configuration "3838A";
     name "T5260488A";
     from "L2842379";
     to "X2842379A";
     nominal_voltage 7199.558;
     phases AS;
}

object transformer {
     configuration "1515B";
     name "T5391758B";
     from "L2841636";
     to "X2841636B";
     nominal_voltage 7199.558;
     phases BS;
}

object transformer {
     configuration "5050A";
     name "T228091193A";
     from "L3047289";
     to "X3047289A";
     nominal_voltage 7199.558;
     phases AS;
}

object transformer {
     configuration "5050B";
     name "T228091193B";
     from "L3047289";
     to "X3047289B";
     nominal_voltage 7199.558;
     phases BS;
}

object transformer {
     configuration "5050C";
     name "T228091193C";
     from "L3047289";
     to "X3047289C";
     nominal_voltage 7199.558;
     phases CS;
}

object transformer {
     configuration "1515C";
     name "T5302862C";
     from "L3085399";
     to "X3085399C";
     nominal_voltage 7199.558;
     phases CS;
}

object transformer {
     configuration "5050B";
     name "T21236413B";
     from "L3085391";
     to "X3085391B";
     nominal_voltage 7199.558;
     phases BS;
}

object transformer {
     configuration "1010A";
     name "T5302468A";
     from "L2897778";
     to "X2897778A";
     nominal_voltage 7199.558;
     phases AS;
}

object transformer {
     configuration "1010A";
     name "T5294787A";
     from "L3197647";
     to "X3197647A";
     nominal_voltage 7199.558;
     phases AS;
}

object transformer {
     configuration "1010B";
     name "T5157715B";
     from "L2936275";
     to "X2936275B";
     nominal_voltage 7199.558;
     phases BS;
}

object transformer {
     configuration "2525B";
     name "T5355768B";
     from "L2729408";
     to "X2729408B";
     nominal_voltage 7199.558;
     phases BS;
}

object transformer {
     configuration "2525A";
     name "T5138562A";
     from "L2673310";
     to "X2673310A";
     nominal_voltage 7199.558;
     phases AS;
}

object transformer {
     configuration "1010A";
     name "T5355934A";
     from "L3048212";
     to "X3048212A";
     nominal_voltage 7199.558;
     phases AS;
}

object transformer {
     configuration "2525A";
     name "T5293483A";
     from "L3104133";
     to "X3104133A";
     nominal_voltage 7199.558;
     phases AS;
}

object transformer {
     configuration "1515A";
     name "T21399762A";
     from "L2879087";
     to "X2879087A";
     nominal_voltage 7199.558;
     phases AS;
}

object transformer {
     configuration "1010C";
     name "T5138650C";
     from "L2710510";
     to "X2710510C";
     nominal_voltage 7199.558;
     phases CS;
}

object transformer {
     configuration "2525B";
     name "T5323242B";
     from "L3122810";
     to "X3122810B";
     nominal_voltage 7199.558;
     phases BS;
}

object transformer {
     configuration "2525C";
     name "T28127090C";
     from "L2954352";
     to "X2954352C";
     nominal_voltage 7199.558;
     phases CS;
}

object transformer {
     configuration "1010A";
     name "T5138769A";
     from "L2729411";
     to "X2729411A";
     nominal_voltage 7199.558;
     phases AS;
}

object transformer {
     configuration "1515A";
     name "T5338896A";
     from "L3178971";
     to "X3178971A";
     nominal_voltage 7199.558;
     phases AS;
}

object transformer {
     configuration "2525B";
     name "T5355586B";
     from "L3254234";
     to "X3254234B";
     nominal_voltage 7199.558;
     phases BS;
}

object transformer {
     configuration "2525A";
     name "T5293471A";
     from "293471";
     to "X_293471A";
     nominal_voltage 7199.558;
     phases AS;
}

object transformer {
     configuration "2525B";
     name "T5293471B";
     from "293471";
     to "X_293471B";
     nominal_voltage 7199.558;
     phases BS;
}

object transformer {
     configuration "2525C";
     name "T5293471C";
     from "293471";
     to "X_293471C";
     nominal_voltage 7199.558;
     phases CS;
}

object transformer {
     configuration "2525A";
     name "T5338954A";
     from "L2860482";
     to "X2860482A";
     nominal_voltage 7199.558;
     phases AS;
}

object transformer {
     configuration "7575C";
     name "T21459629C";
     from "L2763811";
     to "X2763811C";
     nominal_voltage 7199.558;
     phases CS;
}

object transformer {
     configuration "3838A";
     name "T5260562A";
     from "L3251799";
     to "X3251799A";
     nominal_voltage 7199.558;
     phases AS;
}

object transformer {
     configuration "1515C";
     name "T21393486C";
     from "L2898526";
     to "X2898526C";
     nominal_voltage 7199.558;
     phases CS;
}

object transformer {
     configuration "2525B";
     name "T5293518B";
     from "L2897780";
     to "X2897780B";
     nominal_voltage 7199.558;
     phases BS;
}

object transformer {
     configuration "2525C";
     name "T226195194C";
     from "L3027124";
     to "X3027124C";
     nominal_voltage 7199.558;
     phases CS;
}

object transformer {
     configuration "2525B";
     name "T21383494B";
     from "L2954361";
     to "X2954361B";
     nominal_voltage 7199.558;
     phases BS;
}

object transformer {
     configuration "2525C";
     name "T5251863C";
     from "L2745811";
     to "X2745811C";
     nominal_voltage 7199.558;
     phases CS;
}

object transformer {
     configuration "2525A";
     name "T5293645A";
     from "L2841633";
     to "X2841633A";
     nominal_voltage 7199.558;
     phases AS;
}

object transformer {
     configuration "1515A";
     name "T21482431A";
     from "L2917359";
     to "X2917359A";
     nominal_voltage 7199.558;
     phases AS;
}

object transformer {
     configuration "1515A";
     name "T5293480A";
     from "L2748158";
     to "X2748158A";
     nominal_voltage 7199.558;
     phases AS;
}

object transformer {
     configuration "2525A";
     name "T21469911A";
     from "L2955047";
     to "X2955047A";
     nominal_voltage 7199.558;
     phases AS;
}

object transformer {
     configuration "3838C";
     name "T5355432C";
     from "L3122837";
     to "X3122837C";
     nominal_voltage 7199.558;
     phases CS;
}

object transformer {
     configuration "2525B";
     name "T5323285B";
     from "L2804269";
     to "X2804269B";
     nominal_voltage 7199.558;
     phases BS;
}

object transformer {
     configuration "1515C";
     name "T226192954C";
     from "L3157708";
     to "X3157708C";
     nominal_voltage 7199.558;
     phases CS;
}

object transformer {
     configuration "1515C";
     name "T5207292C";
     from "L3179682";
     to "X3179682C";
     nominal_voltage 7199.558;
     phases CS;
}

object transformer {
     configuration "1515B";
     name "T5337672B";
     from "L2822877";
     to "X2822877B";
     nominal_voltage 7199.558;
     phases BS;
}

object transformer {
     configuration "2525C";
     name "T5442373C";
     from "L3141393";
     to "X3141393C";
     nominal_voltage 7199.558;
     phases CS;
}

object transformer {
     configuration "3838A";
     name "T21470405A";
     from "L2897801";
     to "X2897801A";
     nominal_voltage 7199.558;
     phases AS;
}

object transformer {
     configuration "5050A";
     name "T5218474A";
     from "L3217056";
     to "X3217056A";
     nominal_voltage 7199.558;
     phases AS;
}

object transformer {
     configuration "2525A";
     name "T5218472A";
     from "L2936270";
     to "X2936270A";
     nominal_voltage 7199.558;
     phases AS;
}

object transformer {
     configuration "1010A";
     name "T5356014A";
     from "L3235249";
     to "X3235249A";
     nominal_voltage 7199.558;
     phases AS;
}

object transformer {
     configuration "2525C";
     name "T5260528C";
     from "L3217052";
     to "X3217052C";
     nominal_voltage 7199.558;
     phases CS;
}

object transformer {
     configuration "1010A";
     name "T5355933A";
     from "L2916598";
     to "X2916598A";
     nominal_voltage 7199.558;
     phases AS;
}

object transformer {
     configuration "2525A";
     name "T5138649A";
     from "L3048206";
     to "X3048206A";
     nominal_voltage 7199.558;
     phases AS;
}

object transformer {
     configuration "2525C";
     name "T5391978C";
     from "L3141402";
     to "X3141402C";
     nominal_voltage 7199.558;
     phases CS;
}

object transformer {
     configuration "1515A";
     name "T5138642A";
     from "L3235256";
     to "X3235256A";
     nominal_voltage 7199.558;
     phases AS;
}

object transformer {
     configuration "2525A";
     name "T21149420A";
     from "L3178973";
     to "X3178973A";
     nominal_voltage 7199.558;
     phases AS;
}

object transformer {
     configuration "2525A";
     name "T21382992A";
     from "L3197654";
     to "X3197654A";
     nominal_voltage 7199.558;
     phases AS;
}

object transformer {
     configuration "2525C";
     name "T5338958C";
     from "L3066809";
     to "X3066809C";
     nominal_voltage 7199.558;
     phases CS;
}

object transformer {
     configuration "1515B";
     name "T5355585B";
     from "L2766742";
     to "X2766742B";
     nominal_voltage 7199.558;
     phases BS;
}

object transformer {
     configuration "1515A";
     name "T5338900A";
     from "L2991908";
     to "X2991908A";
     nominal_voltage 7199.558;
     phases AS;
}

object transformer {
     configuration "2525B";
     name "T5323389B";
     from "L3065750";
     to "X3065750B";
     nominal_voltage 7199.558;
     phases BS;
}

object transformer {
     configuration "3838A";
     name "T28127253A";
     from "L3085401";
     to "X3085401A";
     nominal_voltage 7199.558;
     phases AS;
}

object transformer {
     configuration "1515A";
     name "T21397067A";
     from "L2729413";
     to "X2729413A";
     nominal_voltage 7199.558;
     phases AS;
}

object transformer {
     configuration "55B";
     name "T5260520B";
     from "L3254915";
     to "X3254915B";
     nominal_voltage 7199.558;
     phases BS;
}

object transformer {
     configuration "1515B";
     name "T5323250B";
     from "L2748131";
     to "X2748131B";
     nominal_voltage 7199.558;
     phases BS;
}

object transformer {
     configuration "2525C";
     name "T5337659C";
     from "L3066810";
     to "X3066810C";
     nominal_voltage 7199.558;
     phases CS;
}

object transformer {
     configuration "2525B";
     name "T28118903B";
     from "L2973146";
     to "X2973146B";
     nominal_voltage 7199.558;
     phases BS;
}

object transformer {
     configuration "2525B";
     name "T21398646B";
     from "L2973180";
     to "X2973180B";
     nominal_voltage 7199.558;
     phases BS;
}

object transformer {
     configuration "1515B";
     name "T5293656B";
     from "L2973167";
     to "X2973167B";
     nominal_voltage 7199.558;
     phases BS;
}

object transformer {
     configuration "2525C";
     name "T5338910C";
     from "L2841621";
     to "X2841621C";
     nominal_voltage 7199.558;
     phases CS;
}

object transformer {
     configuration "1515C";
     name "T28129923C";
     from "L3123509";
     to "X3123509C";
     nominal_voltage 7199.558;
     phases CS;
}

object transformer {
     configuration "1515A";
     name "T5337716A";
     from "L2841627";
     to "X2841627A";
     nominal_voltage 7199.558;
     phases AS;
}

object transformer {
     configuration "1010B";
     name "T5337698B";
     from "L3235250";
     to "X3235250B";
     nominal_voltage 7199.558;
     phases BS;
}

object transformer {
     configuration "2525A";
     name "T2224386946A";
     from "L3728037";
     to "X3728037A";
     nominal_voltage 7199.558;
     phases AS;
}

object transformer {
     configuration "1010B";
     name "T5330121B";
     from "L3142078";
     to "X3142078B";
     nominal_voltage 7199.558;
     phases BS;
}

object transformer {
     configuration "1515B";
     name "T5323252B";
     from "L2879066";
     to "X2879066B";
     nominal_voltage 7199.558;
     phases BS;
}

object transformer {
     configuration "2525C";
     name "T5441331C";
     from "L3235254";
     to "X3235254C";
     nominal_voltage 7199.558;
     phases CS;
}

object transformer {
     configuration "2525A";
     name "T5260474A";
     from "L2917330";
     to "X2917330A";
     nominal_voltage 7199.558;
     phases AS;
}

object transformer {
     configuration "1010B";
     name "T5355376B";
     from "L2914323";
     to "X2914323B";
     nominal_voltage 7199.558;
     phases BS;
}

object transformer {
     configuration "1010C";
     name "T5338944C";
     from "L3197640";
     to "X3197640C";
     nominal_voltage 7199.558;
     phases CS;
}

object transformer {
     configuration "1515C";
     name "T5260640C";
     from "L3179673";
     to "X3179673C";
     nominal_voltage 7199.558;
     phases CS;
}

object transformer {
     configuration "2525C";
     name "T5274997C";
     from "L3048228";
     to "X3048228C";
     nominal_voltage 7199.558;
     phases CS;
}

object transformer {
     configuration "1010C";
     name "T5138372C";
     from "L3104126";
     to "X3104126C";
     nominal_voltage 7199.558;
     phases CS;
}

object transformer {
     configuration "5050A";
     name "T226308721A";
     from "L2990098";
     to "X2990098A";
     nominal_voltage 7199.558;
     phases AS;
}

object transformer {
     configuration "2525A";
     name "T21380616A";
     from "L2879067";
     to "X2879067A";
     nominal_voltage 7199.558;
     phases AS;
}

object transformer {
     configuration "2525A";
     name "T226193170A";
     from "L3176656";
     to "X3176656A";
     nominal_voltage 7199.558;
     phases AS;
}

object transformer {
     configuration "1010C";
     name "T5293666C";
     from "L2710532";
     to "X2710532C";
     nominal_voltage 7199.558;
     phases CS;
}

object transformer {
     configuration "5050B";
     name "T5338994B";
     from "L3160115";
     to "X3160115B";
     nominal_voltage 7199.558;
     phases BS;
}

object transformer {
     configuration "3838C";
     name "T228665517C";
     from "L3103822";
     to "X3103822C";
     nominal_voltage 7199.558;
     phases CS;
}

object transformer {
     configuration "1010A";
     name "T5260647A";
     from "L2805034";
     to "X2805034A";
     nominal_voltage 7199.558;
     phases AS;
}

object transformer {
     configuration "1515A";
     name "T226115278A";
     from "L3157167";
     to "X3157167A";
     nominal_voltage 7199.558;
     phases AS;
}

object transformer {
     configuration "1010A";
     name "T5338977A";
     from "L2916620";
     to "X2916620A";
     nominal_voltage 7199.558;
     phases AS;
}

object transformer {